Circuit: * C:\Users\pmale\Documents\SourceTree\homegreen\Eagle\Node\simulation\Draft3.asc

Direct Newton iteration for .op point succeeded.

Date: Sun Jun 02 15:13:11 2019
Total elapsed time: 0.135 seconds.

tnom = 27
temp = 27
method = modified trap
totiter = 18066
traniter = 18060
tranpoints = 5982
accept = 4668
rejected = 1314
matrix size = 14
fillins = 2
solver = Normal
Matrix Compiler1: 902 bytes object code size  0.1/0.1/[0.1]
Matrix Compiler2:      92 opcodes  0.2/[0.1]/0.1

