Circuit: * C:\Users\pmale\Documents\SourceTree\homegreen\Eagle\Node\simulation\Draft4.asc

WARNING: Less than two connections to node NC_01.  This node is used by V3.
Direct Newton iteration for .op point succeeded.
Ignoring empty pin current: Ix(u1:vcc)
Ignoring empty pin current: Ix(u2:vcc)
Ignoring empty pin current: Ix(u3:vcc)
Ignoring empty pin current: Ix(u4:vcc)
Ignoring empty pin current: Ix(u5:vcc)
Ignoring empty pin current: Ix(u1:vcc)
Ignoring empty pin current: Ix(u2:vcc)
Ignoring empty pin current: Ix(u3:vcc)
Ignoring empty pin current: Ix(u4:vcc)
Ignoring empty pin current: Ix(u5:vcc)

Date: Sat Oct 12 11:53:07 2019
Total elapsed time: 0.216 seconds.

tnom = 27
temp = 27
method = modified trap
totiter = 2099
traniter = 2088
tranpoints = 1045
accept = 1045
rejected = 0
matrix size = 71
fillins = 2
solver = Normal
Thread vector: 13.5/12.1[2] 3.6/6.0[1] 3.4/5.4[1] 0.5/4.5[1]  2592/500
Matrix Compiler1: 1.98 KB object code size  1.5/1.0/[0.5]
Matrix Compiler2: 3.64 KB object code size  0.9/1.9/[0.9]

