Circuit: * C:\Users\pmale\Documents\SourceTree\homegreen\Eagle\Node\simulation\Draft2.asc

.OP point found by inspection.

Date: Wed May 29 14:25:27 2019
Total elapsed time: 0.090 seconds.

tnom = 27
temp = 27
method = modified trap
totiter = 3416
traniter = 3416
tranpoints = 1604
accept = 1452
rejected = 152
matrix size = 23
fillins = 8
solver = Normal
Matrix Compiler1: 2.02 KB object code size  0.4/0.2/[0.2]
Matrix Compiler2: 2.08 KB object code size  0.1/0.2/[0.0]

