Circuit: * C:\Users\pmale\Documents\SourceTree\homegreen\Eagle\Node\simulation\low_output_voltage.asc

WARNING: Specified period is not longer than the sum of Trise, Tfall, and Ton for v2.  Increasing period to 600.002
.OP point found by inspection.

Date: Fri Oct 11 09:12:24 2019
Total elapsed time: 0.094 seconds.

tnom = 27
temp = 27
method = modified trap
totiter = 2379
traniter = 2379
tranpoints = 1133
accept = 1118
rejected = 15
matrix size = 11
fillins = 4
solver = Normal
Matrix Compiler1: 824 bytes object code size  0.2/0.1/[0.1]
Matrix Compiler2: off  [0.1]/0.1/0.1

