Circuit: * C:\Users\pmale\Documents\SourceTree\homegreen\Eagle\Node\simulation\power switch 2.asc

WARNING: Specified period is not longer than the sum of Trise, Tfall, and Ton for v3.  Increasing period to 0.402
Direct Newton iteration for .op point succeeded.

Date: Wed May 08 17:45:00 2019
Total elapsed time: 0.116 seconds.

tnom = 27
temp = 27
method = modified trap
totiter = 4372
traniter = 4358
tranpoints = 1710
accept = 1519
rejected = 191
matrix size = 28
fillins = 12
solver = Normal
Matrix Compiler1: 2.48 KB object code size  0.4/0.3/[0.2]
Matrix Compiler2: 2.47 KB object code size  0.3/0.3/[0.3]

