Circuit: * C:\Users\pmale\Documents\SourceTree\homegreen\Eagle\Node\simulation\power switch.asc

Direct Newton iteration for .op point succeeded.

Date: Sun Jun 16 10:07:25 2019
Total elapsed time: 0.148 seconds.

tnom = 27
temp = 27
method = modified trap
totiter = 9961
traniter = 9923
tranpoints = 4623
accept = 4466
rejected = 157
matrix size = 15
fillins = 16
solver = Normal
Matrix Compiler1: 1.88 KB object code size  0.4/0.3/[0.2]
Matrix Compiler2: 1.49 KB object code size  0.2/0.3/[0.2]

