Circuit: * C:\Users\pmale\Documents\SourceTree\homegreen\Eagle\Node\simulation\supercap.asc

Direct Newton iteration for .op point succeeded.

Date: Fri Jul 19 10:38:57 2019
Total elapsed time: 0.155 seconds.

tnom = 27
temp = 27
method = modified trap
totiter = 9892
traniter = 9854
tranpoints = 4593
accept = 4438
rejected = 155
matrix size = 15
fillins = 16
solver = Normal
Matrix Compiler1: 1.88 KB object code size  0.3/0.2/[0.1]
Matrix Compiler2: 1.49 KB object code size  0.2/0.2/[0.2]

